Version 4
SHEET 1 1892 824
WIRE -128 -880 -128 -960
WIRE 0 -880 0 -960
WIRE 128 -880 128 -960
WIRE -128 -752 -128 -800
WIRE 0 -752 0 -800
WIRE 128 -752 128 -800
WIRE 944 -96 944 -240
WIRE 944 -96 832 -96
WIRE 1056 -96 944 -96
WIRE 640 -16 608 -16
WIRE 752 -16 704 -16
WIRE 1184 -16 1136 -16
WIRE 1280 -16 1248 -16
WIRE 1648 32 1648 -128
WIRE 832 64 832 -96
WIRE 1056 64 1056 -96
WIRE 1584 80 1520 80
WIRE 608 112 608 -16
WIRE 608 112 592 112
WIRE 640 112 608 112
WIRE 752 112 752 -16
WIRE 752 112 720 112
WIRE 768 112 752 112
WIRE 1136 112 1136 -16
WIRE 1136 112 1120 112
WIRE 1168 112 1136 112
WIRE 1280 112 1280 -16
WIRE 1280 112 1248 112
WIRE 1296 112 1280 112
WIRE 832 256 832 160
WIRE 944 256 832 256
WIRE 1056 256 1056 160
WIRE 1056 256 944 256
WIRE 944 304 944 256
WIRE 1296 304 944 304
WIRE 1520 304 1520 80
WIRE 1520 304 1376 304
WIRE 1648 304 1648 128
WIRE 1776 304 1648 304
WIRE 944 336 944 304
WIRE 1648 464 1648 304
WIRE 1520 512 1520 304
WIRE 1584 512 1520 512
WIRE 944 560 944 416
WIRE 1648 704 1648 560
FLAG -128 -752 0
FLAG -128 -960 5V
IOPIN -128 -960 Out
FLAG 944 -240 5V
IOPIN 944 -240 In
FLAG 592 112 PIR_1
IOPIN 592 112 In
FLAG 1296 112 PIR_2
IOPIN 1296 112 In
FLAG 0 -752 0
FLAG 0 -960 PIR_1
IOPIN 0 -960 Out
FLAG 128 -752 0
FLAG 128 -960 PIR_2
IOPIN 128 -960 Out
FLAG 944 560 0
FLAG 1648 -128 5V
IOPIN 1648 -128 In
FLAG 1648 704 0
FLAG 1776 304 Out
SYMBOL npn 768 64 R0
SYMATTR InstName Q1
SYMATTR Value 2N2222
SYMBOL npn 1120 64 M0
SYMATTR InstName Q2
SYMATTR Value 2N2222
SYMBOL res 736 96 R90
WINDOW 0 0 56 VBottom 2
WINDOW 3 32 56 VTop 2
SYMATTR InstName R1
SYMATTR Value 10k
SYMBOL res 1264 96 R90
WINDOW 0 0 56 VBottom 2
WINDOW 3 32 56 VTop 2
SYMATTR InstName R2
SYMATTR Value 10k
SYMBOL voltage -128 -896 R0
WINDOW 123 0 0 Left 0
WINDOW 39 0 0 Left 0
SYMATTR InstName V1
SYMATTR Value 5
SYMBOL res 928 320 R0
SYMATTR InstName R3
SYMATTR Value 680k
SYMBOL voltage 0 -896 R0
WINDOW 123 0 0 Left 0
WINDOW 39 0 0 Left 0
SYMATTR InstName V2
SYMATTR Value 3.3
SYMBOL voltage 128 -896 R0
WINDOW 123 0 0 Left 0
WINDOW 39 0 0 Left 0
SYMATTR InstName V3
SYMATTR Value 3.3
SYMBOL cap 704 -32 R90
WINDOW 0 0 32 VBottom 2
WINDOW 3 32 32 VTop 2
SYMATTR InstName C1
SYMATTR Value 10µ
SYMBOL cap 1248 -32 R90
WINDOW 0 0 32 VBottom 2
WINDOW 3 32 32 VTop 2
SYMATTR InstName C2
SYMATTR Value 10µ
SYMBOL res 1392 288 R90
WINDOW 0 0 56 VBottom 2
WINDOW 3 32 56 VTop 2
SYMATTR InstName R4
SYMATTR Value 820
SYMBOL npn 1584 32 R0
SYMATTR InstName Q3
SYMATTR Value 2N2222
SYMBOL pnp 1584 464 R0
SYMATTR InstName Q4
SYMATTR Value 2N2907
TEXT -416 808 Left 2 !.tran 10
